@<TRIPOS>MOLECULE
31N
   66    71     1     0     0
SMALL
resp


@<TRIPOS>ATOM
      1 C1          7.1970    0.1790    0.0600 ca        1 31N      0.373727
      2 C2          5.8260    0.2990   -0.1020 ca        1 31N     -0.024359
      3 C3          5.7210   -2.0930    0.1250 ca        1 31N      0.101680
      4 C4          3.6280   -0.7950   -0.2870 c3        1 31N     -0.026706
      5 C5          2.7000   -0.8540    0.8920 c3        1 31N      0.040416
      6 C6          1.2500   -0.6070    0.4350 c3        1 31N      0.207566
      7 C7          0.8480   -1.6430   -0.6300 c3        1 31N     -0.202088
      8 C8         -0.5840   -1.4150   -1.0640 c3        1 31N     -0.177803
      9 C9         -0.2900    0.9990   -0.5690 c3        1 31N     -0.263952
     10 C10        -1.0860   -0.5000    1.2320 c3        1 31N     -0.177803
     11 N1         -2.5800   -0.0610   -0.6890 n4        1 31N     -0.474327
     12 C11        -3.5110   -1.1620   -0.2720 c3        1 31N     -0.017544
     13 C12        -4.9630   -0.8830   -0.4340 ca        1 31N      0.286409
     14 C13         7.3330    2.5630   -0.1910 ca        1 31N     -0.364502
     15 F1          5.0360   -3.2590    0.1880 f         1 31N     -0.166060
     16 N2          5.2130    1.4850   -0.2890 nb        1 31N     -0.311503
     17 O1          5.4040    3.8620   -0.4980 os        1 31N     -0.405878
     18 C14         7.9350    1.3400   -0.0020 ca        1 31N     -0.067630
     19 C15         5.9660    2.5930   -0.3150 ca        1 31N      0.557024
     20 N3          7.8280   -0.9910    0.2250 nb        1 31N     -0.566797
     21 C16         7.0850   -2.1000    0.2630 ca        1 31N      0.177006
     22 C17         5.0920   -0.8740   -0.0550 ca        1 31N      0.051852
     23 C18        -1.1460   -0.2380   -0.2740 c3        1 31N      0.414204
     24 O2          1.0550    0.7540   -0.0840 os        1 31N     -0.307013
     25 C19         0.3410   -0.8000    1.6450 c3        1 31N     -0.202088
     26 N4         -5.4660    0.1640    0.2380 nb        1 31N     -0.582712
     27 C20        -6.7770    0.4060    0.0790 ca        1 31N      0.452620
     28 C21        -7.6010   -0.3770   -0.7070 ca        1 31N      0.146390
     29 C22        -7.0680   -1.4580   -1.3750 ca        1 31N     -0.098335
     30 C23        -5.7200   -1.7210   -1.2340 ca        1 31N     -0.293432
     31 O3          2.8560   -2.1870    1.3770 oh        1 31N     -0.642016
     32 N5         -7.3390    1.4700    0.7890 n         1 31N     -0.500463
     33 C24        -8.6970    1.5080    0.9520 c         1 31N      0.644188
     34 C25        -9.5680    0.4890    0.3000 c3        1 31N     -0.009802
     35 O4         -8.9460   -0.0970   -0.8310 os        1 31N     -0.354183
     36 O5         -9.1980    2.3960    1.6160 o         1 31N     -0.569125
     37 C26         3.9800    3.7930   -0.6380 c3        1 31N      0.056834
     38 H1          3.3960   -1.6680   -0.8600 hc        1 31N      0.013052
     39 H2          3.4730    0.1770   -0.7080 hc        1 31N      0.013052
     40 H3          2.9160   -0.1170    1.6370 h1        1 31N      0.123440
     41 H4          0.8740   -2.6000   -0.1510 hc        1 31N      0.133096
     42 H5          1.4610   -1.4550   -1.4860 hc        1 31N      0.133096
     43 H6         -1.1400   -2.2810   -0.7730 hc        1 31N      0.089789
     44 H7         -0.5550   -1.1170   -2.0920 hc        1 31N      0.089789
     45 H8         -0.2280    1.0890   -1.6330 h1        1 31N      0.162882
     46 H9         -0.6910    1.8030    0.0140 h1        1 31N      0.162882
     47 H10        -1.6520   -1.3900    1.4120 hc        1 31N      0.089789
     48 H11        -1.3610    0.4150    1.7150 hc        1 31N      0.089789
     49 H12        -2.5970   -0.0190   -1.6890 hn        1 31N      0.340443
     50 H13        -3.3020   -1.9750   -0.9350 hx        1 31N      0.101863
     51 H14        -3.3600   -1.2770    0.7810 hx        1 31N      0.101863
     52 H15         7.9120    3.4620   -0.2400 ha        1 31N      0.200046
     53 H16         9.0000    1.2910    0.0980 ha        1 31N      0.161385
     54 H17         7.5780   -3.0390    0.4070 h4        1 31N      0.120553
     55 H18         0.3800   -1.8370    1.9030 hc        1 31N      0.133096
     56 H19         0.6200   -0.0590    2.3660 hc        1 31N      0.133096
     57 H20        -7.6850   -2.0800   -1.9890 ha        1 31N      0.193487
     58 H21        -5.2710   -2.5540   -1.7320 ha        1 31N      0.183722
     59 H22         3.5220   -2.6420    0.8560 ho        1 31N      0.413596
     60 H23        -9.6930   -0.2990    1.0150 h1        1 31N      0.131591
     61 H24       -10.4230    1.0170   -0.0680 h1        1 31N      0.131591
     62 H25         3.6630    2.7730   -0.5700 h1        1 31N      0.050789
     63 H26         3.6950    4.1920   -1.5900 h1        1 31N      0.050789
     64 H27         3.5160    4.3630    0.1410 h1        1 31N      0.050789
     65 H28        -6.7600    2.1890    1.1720 hn        1 31N      0.356410
     66 H29        -2.9090    0.7830   -0.2650 hn        1 31N      0.340443
@<TRIPOS>BOND
     1    1    2 ar  
     2    1   18 ar  
     3    1   20 ar  
     4    2   16 ar  
     5    2   22 ar  
     6    3   15 1   
     7    3   21 ar  
     8    3   22 ar  
     9    4    5 1   
    10    4   22 1   
    11    4   38 1   
    12    4   39 1   
    13    5    6 1   
    14    5   31 1   
    15    5   40 1   
    16    6    7 1   
    17    6   24 1   
    18    6   25 1   
    19    7    8 1   
    20    7   41 1   
    21    7   42 1   
    22    8   23 1   
    23    8   43 1   
    24    8   44 1   
    25    9   23 1   
    26    9   24 1   
    27    9   45 1   
    28    9   46 1   
    29   10   23 1   
    30   10   25 1   
    31   10   47 1   
    32   10   48 1   
    33   11   12 1   
    34   11   23 1   
    35   11   49 1   
    36   11   66 1   
    37   12   13 1   
    38   12   50 1   
    39   12   51 1   
    40   13   26 ar  
    41   13   30 ar  
    42   14   18 ar  
    43   14   19 ar  
    44   14   52 1   
    45   16   19 ar  
    46   17   19 1   
    47   17   37 1   
    48   18   53 1   
    49   20   21 ar  
    50   21   54 1   
    51   25   55 1   
    52   25   56 1   
    53   26   27 ar  
    54   27   28 ar  
    55   27   32 1   
    56   28   29 ar  
    57   28   35 1   
    58   29   30 ar  
    59   29   57 1   
    60   30   58 1   
    61   31   59 1   
    62   32   33 1   
    63   32   65 1   
    64   33   34 1   
    65   33   36 2   
    66   34   35 1   
    67   34   60 1   
    68   34   61 1   
    69   37   62 1   
    70   37   63 1   
    71   37   64 1   
@<TRIPOS>SUBSTRUCTURE
     1 31N         1 TEMP              0 ****  ****    0 ROOT
