@<TRIPOS>MOLECULE
Aspirin
21   21    1
SMALL
USER_CHARGES


@<TRIPOS>ATOM
      1 C1         -0.7534    1.1895    0.0767 C.ar      1 UNK        -0.1150 
      2 C2         -0.0530   -0.0376    0.1046 C.ar      1 UNK         0.1350 
      3 C3         -0.7701   -1.2654   -0.0099 C.ar      1 UNK        -0.1150 
      4 C4         -2.1837   -1.2162   -0.1049 C.ar      1 UNK        -0.1150 
      5 C5         -2.8724    0.0113   -0.1070 C.ar      1 UNK        -0.1150 
      6 C6         -2.1558    1.2168   -0.0227 C.ar      1 UNK        -0.1150 
      7 C7         -0.0744   -2.6071   -0.0329 C.2       1 UNK         0.6350 
      8 O8         -0.9048   -3.6798    0.0540 O.3       1 UNK        -0.5300 
      9 O9          1.1427   -2.7464   -0.1122 O.2       1 UNK        -0.4400 
     10 O10         1.3187    0.0128    0.1783 O.3       1 UNK        -0.2150 
     11 C11         1.9175    0.0795    1.3862 C.2       1 UNK         0.5100 
     12 C12         3.4348    0.0623    1.2880 C.3       1 UNK        -0.1800 
     13 O13         1.3513    0.1398    2.4776 O.2       1 UNK        -0.4300 
     14 H14        -0.2062    2.1186    0.1407 H         1 UNK         0.1150 
     15 H15        -2.7608   -2.1264   -0.1829 H         1 UNK         0.1150 
     16 H16        -3.9509    0.0252   -0.1809 H         1 UNK         0.1150 
     17 H17        -2.6798    2.1613   -0.0331 H         1 UNK         0.1150 
     18 H18        -0.3680   -4.4553    0.0651 H         1 UNK         0.4500 
     19 H19         3.7566    0.0611    0.2463 H         1 UNK         0.0600 
     20 H20         3.8493    0.9392    1.7835 H         1 UNK         0.0600 
     21 H21         3.8257   -0.8313    1.7736 H         1 UNK         0.0600 
@<TRIPOS>BOND
     1    1    2 ar   
     2    1    6 ar   
     3    1   14 1    
     4    2    3 ar   
     5    2   10 1    
     6    3    4 ar   
     7    3    7 1    
     8    4    5 ar   
     9    4   15 1    
    10    5    6 ar   
    11    5   16 1    
    12    6   17 1    
    13    7    8 1    
    14    7    9 2    
    15    8   18 1    
    16   10   11 1    
    17   11   12 1    
    18   11   13 2    
    19   12   19 1    
    20   12   20 1    
    21   12   21 1    
@<TRIPOS>SUBSTRUCTURE
     1 UNK         1 GROUP             0       ****    0 ROOT    
